LAMMPS (3 Mar 2020)

echo both
units metal
dimension 3
boundary p p p

atom_style full
bond_style harmonic
angle_style harmonic
neighbor 2.0 bin
neigh_modify delay 0 every 1 check yes
####读取水
read_data h2o.file
  orthogonal box = (-1 0 -45) to (289 290 25)
  reading atoms ...
  157797 atoms
  scanning bonds ...
  scanning angles ...
  reading bonds ...
  105198 bonds
  reading angles ...
  52599 angles
#####创建碳化硅
variable a equal 3.073000
variable b equal $((v_a*sqrt(3)))
variable b equal 5.3225921316591593424
variable c equal 10.053000
lattice custom  1.0             a1      $a      0.0     0.0             a2      0.0     $b      0.0             a3      0.0     0.0     $c              basis   0.0    0.0    $((1.889964/v_c))         basis   $((1.536500/v_a))    $((2.661296/v_b))    $((1.889964/v_c))             basis   0.0    0.0    $((6.916464/v_c))         basis   $((1.536500/v_a))    $((2.661296/v_b))    $((6.916464/v_c))             basis   0.0    $((1.774197/v_b))    $((4.403214/v_c))           basis   $((1.536500/v_a))    $((0.887099/v_b))    $((9.429714/v_c))             basis   $((1.536500/v_a))    $((4.43549/v_b))     $((4.403214/v_c))             basis   0.0     $((3.5484/v_b))  $((9.429714/v_c))              basis    0.0    0.0    0.0              basis    $((1.536500/v_a))    $((2.661296/v_b))    0.0          basis    0.0    0.0    $((5.026500/v_c))                basis    $((1.536500/v_a))    $((2.661296/v_b))    $((5.026500/v_c))            basis    0.0    $((1.774197/v_b))    $((2.513250/v_c))          basis    $((1.536500/v_a))    $((0.887099/v_b))    $((7.539750/v_c))            basis    $((1.536500/v_a))    $((4.435493/v_b))    $((2.513250/v_c))            basis    0    $((3.548395/v_b))    $((7.539750/v_c))
lattice custom  1.0             a1      3.073      0.0     0.0             a2      0.0     $b      0.0             a3      0.0     0.0     $c              basis   0.0    0.0    $((1.889964/v_c))         basis   $((1.536500/v_a))    $((2.661296/v_b))    $((1.889964/v_c))             basis   0.0    0.0    $((6.916464/v_c))         basis   $((1.536500/v_a))    $((2.661296/v_b))    $((6.916464/v_c))             basis   0.0    $((1.774197/v_b))    $((4.403214/v_c))           basis   $((1.536500/v_a))    $((0.887099/v_b))    $((9.429714/v_c))             basis   $((1.536500/v_a))    $((4.43549/v_b))     $((4.403214/v_c))             basis   0.0     $((3.5484/v_b))  $((9.429714/v_c))              basis    0.0    0.0    0.0              basis    $((1.536500/v_a))    $((2.661296/v_b))    0.0          basis    0.0    0.0    $((5.026500/v_c))                basis    $((1.536500/v_a))    $((2.661296/v_b))    $((5.026500/v_c))            basis    0.0    $((1.774197/v_b))    $((2.513250/v_c))          basis    $((1.536500/v_a))    $((0.887099/v_b))    $((7.539750/v_c))            basis    $((1.536500/v_a))    $((4.435493/v_b))    $((2.513250/v_c))            basis    0    $((3.548395/v_b))    $((7.539750/v_c))
lattice custom  1.0             a1      3.073      0.0     0.0             a2      0.0     5.32259213165916      0.0             a3      0.0     0.0     $c              basis   0.0    0.0    $((1.889964/v_c))         basis   $((1.536500/v_a))    $((2.661296/v_b))    $((1.889964/v_c))             basis   0.0    0.0    $((6.916464/v_c))         basis   $((1.536500/v_a))    $((2.661296/v_b))    $((6.916464/v_c))             basis   0.0    $((1.774197/v_b))    $((4.403214/v_c))           basis   $((1.536500/v_a))    $((0.887099/v_b))    $((9.429714/v_c))             basis   $((1.536500/v_a))    $((4.43549/v_b))     $((4.403214/v_c))             basis   0.0     $((3.5484/v_b))  $((9.429714/v_c))              basis    0.0    0.0    0.0              basis    $((1.536500/v_a))    $((2.661296/v_b))    0.0          basis    0.0    0.0    $((5.026500/v_c))                basis    $((1.536500/v_a))    $((2.661296/v_b))    $((5.026500/v_c))            basis    0.0    $((1.774197/v_b))    $((2.513250/v_c))          basis    $((1.536500/v_a))    $((0.887099/v_b))    $((7.539750/v_c))            basis    $((1.536500/v_a))    $((4.435493/v_b))    $((2.513250/v_c))            basis    0    $((3.548395/v_b))    $((7.539750/v_c))
lattice custom  1.0             a1      3.073      0.0     0.0             a2      0.0     5.32259213165916      0.0             a3      0.0     0.0     10.053              basis   0.0    0.0    $((1.889964/v_c))         basis   $((1.536500/v_a))    $((2.661296/v_b))    $((1.889964/v_c))             basis   0.0    0.0    $((6.916464/v_c))         basis   $((1.536500/v_a))    $((2.661296/v_b))    $((6.916464/v_c))             basis   0.0    $((1.774197/v_b))    $((4.403214/v_c))           basis   $((1.536500/v_a))    $((0.887099/v_b))    $((9.429714/v_c))             basis   $((1.536500/v_a))    $((4.43549/v_b))     $((4.403214/v_c))             basis   0.0     $((3.5484/v_b))  $((9.429714/v_c))              basis    0.0    0.0    0.0              basis    $((1.536500/v_a))    $((2.661296/v_b))    0.0          basis    0.0    0.0    $((5.026500/v_c))                basis    $((1.536500/v_a))    $((2.661296/v_b))    $((5.026500/v_c))            basis    0.0    $((1.774197/v_b))    $((2.513250/v_c))          basis    $((1.536500/v_a))    $((0.887099/v_b))    $((7.539750/v_c))            basis    $((1.536500/v_a))    $((4.435493/v_b))    $((2.513250/v_c))            basis    0    $((3.548395/v_b))    $((7.539750/v_c))
lattice custom  1.0             a1      3.073      0.0     0.0             a2      0.0     5.32259213165916      0.0             a3      0.0     0.0     10.053              basis   0.0    0.0    0.18799999999999997269         basis   $((1.536500/v_a))    $((2.661296/v_b))    $((1.889964/v_c))             basis   0.0    0.0    $((6.916464/v_c))         basis   $((1.536500/v_a))    $((2.661296/v_b))    $((6.916464/v_c))             basis   0.0    $((1.774197/v_b))    $((4.403214/v_c))           basis   $((1.536500/v_a))    $((0.887099/v_b))    $((9.429714/v_c))             basis   $((1.536500/v_a))    $((4.43549/v_b))     $((4.403214/v_c))             basis   0.0     $((3.5484/v_b))  $((9.429714/v_c))              basis    0.0    0.0    0.0              basis    $((1.536500/v_a))    $((2.661296/v_b))    0.0          basis    0.0    0.0    $((5.026500/v_c))                basis    $((1.536500/v_a))    $((2.661296/v_b))    $((5.026500/v_c))            basis    0.0    $((1.774197/v_b))    $((2.513250/v_c))          basis    $((1.536500/v_a))    $((0.887099/v_b))    $((7.539750/v_c))            basis    $((1.536500/v_a))    $((4.435493/v_b))    $((2.513250/v_c))            basis    0    $((3.548395/v_b))    $((7.539750/v_c))
lattice custom  1.0             a1      3.073      0.0     0.0             a2      0.0     5.32259213165916      0.0             a3      0.0     0.0     10.053              basis   0.0    0.0    0.18799999999999997269         basis   0.5    $((2.661296/v_b))    $((1.889964/v_c))             basis   0.0    0.0    $((6.916464/v_c))         basis   $((1.536500/v_a))    $((2.661296/v_b))    $((6.916464/v_c))             basis   0.0    $((1.774197/v_b))    $((4.403214/v_c))           basis   $((1.536500/v_a))    $((0.887099/v_b))    $((9.429714/v_c))             basis   $((1.536500/v_a))    $((4.43549/v_b))     $((4.403214/v_c))             basis   0.0     $((3.5484/v_b))  $((9.429714/v_c))              basis    0.0    0.0    0.0              basis    $((1.536500/v_a))    $((2.661296/v_b))    0.0          basis    0.0    0.0    $((5.026500/v_c))                basis    $((1.536500/v_a))    $((2.661296/v_b))    $((5.026500/v_c))            basis    0.0    $((1.774197/v_b))    $((2.513250/v_c))          basis    $((1.536500/v_a))    $((0.887099/v_b))    $((7.539750/v_c))            basis    $((1.536500/v_a))    $((4.435493/v_b))    $((2.513250/v_c))            basis    0    $((3.548395/v_b))    $((7.539750/v_c))
lattice custom  1.0             a1      3.073      0.0     0.0             a2      0.0     5.32259213165916      0.0             a3      0.0     0.0     10.053              basis   0.0    0.0    0.18799999999999997269         basis   0.5    0.49999998763204500651    $((1.889964/v_c))             basis   0.0    0.0    $((6.916464/v_c))         basis   $((1.536500/v_a))    $((2.661296/v_b))    $((6.916464/v_c))             basis   0.0    $((1.774197/v_b))    $((4.403214/v_c))           basis   $((1.536500/v_a))    $((0.887099/v_b))    $((9.429714/v_c))             basis   $((1.536500/v_a))    $((4.43549/v_b))     $((4.403214/v_c))             basis   0.0     $((3.5484/v_b))  $((9.429714/v_c))              basis    0.0    0.0    0.0              basis    $((1.536500/v_a))    $((2.661296/v_b))    0.0          basis    0.0    0.0    $((5.026500/v_c))                basis    $((1.536500/v_a))    $((2.661296/v_b))    $((5.026500/v_c))            basis    0.0    $((1.774197/v_b))    $((2.513250/v_c))          basis    $((1.536500/v_a))    $((0.887099/v_b))    $((7.539750/v_c))            basis    $((1.536500/v_a))    $((4.435493/v_b))    $((2.513250/v_c))            basis    0    $((3.548395/v_b))    $((7.539750/v_c))
lattice custom  1.0             a1      3.073      0.0     0.0             a2      0.0     5.32259213165916      0.0             a3      0.0     0.0     10.053              basis   0.0    0.0    0.18799999999999997269         basis   0.5    0.49999998763204500651    0.18799999999999997269             basis   0.0    0.0    $((6.916464/v_c))         basis   $((1.536500/v_a))    $((2.661296/v_b))    $((6.916464/v_c))             basis   0.0    $((1.774197/v_b))    $((4.403214/v_c))           basis   $((1.536500/v_a))    $((0.887099/v_b))    $((9.429714/v_c))             basis   $((1.536500/v_a))    $((4.43549/v_b))     $((4.403214/v_c))             basis   0.0     $((3.5484/v_b))  $((9.429714/v_c))              basis    0.0    0.0    0.0              basis    $((1.536500/v_a))    $((2.661296/v_b))    0.0          basis    0.0    0.0    $((5.026500/v_c))                basis    $((1.536500/v_a))    $((2.661296/v_b))    $((5.026500/v_c))            basis    0.0    $((1.774197/v_b))    $((2.513250/v_c))          basis    $((1.536500/v_a))    $((0.887099/v_b))    $((7.539750/v_c))            basis    $((1.536500/v_a))    $((4.435493/v_b))    $((2.513250/v_c))            basis    0    $((3.548395/v_b))    $((7.539750/v_c))
lattice custom  1.0             a1      3.073      0.0     0.0             a2      0.0     5.32259213165916      0.0             a3      0.0     0.0     10.053              basis   0.0    0.0    0.18799999999999997269         basis   0.5    0.49999998763204500651    0.18799999999999997269             basis   0.0    0.0    0.68799999999999994493         basis   $((1.536500/v_a))    $((2.661296/v_b))    $((6.916464/v_c))             basis   0.0    $((1.774197/v_b))    $((4.403214/v_c))           basis   $((1.536500/v_a))    $((0.887099/v_b))    $((9.429714/v_c))             basis   $((1.536500/v_a))    $((4.43549/v_b))     $((4.403214/v_c))             basis   0.0     $((3.5484/v_b))  $((9.429714/v_c))              basis    0.0    0.0    0.0              basis    $((1.536500/v_a))    $((2.661296/v_b))    0.0          basis    0.0    0.0    $((5.026500/v_c))                basis    $((1.536500/v_a))    $((2.661296/v_b))    $((5.026500/v_c))            basis    0.0    $((1.774197/v_b))    $((2.513250/v_c))          basis    $((1.536500/v_a))    $((0.887099/v_b))    $((7.539750/v_c))            basis    $((1.536500/v_a))    $((4.435493/v_b))    $((2.513250/v_c))            basis    0    $((3.548395/v_b))    $((7.539750/v_c))
lattice custom  1.0             a1      3.073      0.0     0.0             a2      0.0     5.32259213165916      0.0             a3      0.0     0.0     10.053              basis   0.0    0.0    0.18799999999999997269         basis   0.5    0.49999998763204500651    0.18799999999999997269             basis   0.0    0.0    0.68799999999999994493         basis   0.5    $((2.661296/v_b))    $((6.916464/v_c))             basis   0.0    $((1.774197/v_b))    $((4.403214/v_c))           basis   $((1.536500/v_a))    $((0.887099/v_b))    $((9.429714/v_c))             basis   $((1.536500/v_a))    $((4.43549/v_b))     $((4.403214/v_c))             basis   0.0     $((3.5484/v_b))  $((9.429714/v_c))              basis    0.0    0.0    0.0              basis    $((1.536500/v_a))    $((2.661296/v_b))    0.0          basis    0.0    0.0    $((5.026500/v_c))                basis    $((1.536500/v_a))    $((2.661296/v_b))    $((5.026500/v_c))            basis    0.0    $((1.774197/v_b))    $((2.513250/v_c))          basis    $((1.536500/v_a))    $((0.887099/v_b))    $((7.539750/v_c))            basis    $((1.536500/v_a))    $((4.435493/v_b))    $((2.513250/v_c))            basis    0    $((3.548395/v_b))    $((7.539750/v_c))
lattice custom  1.0             a1      3.073      0.0     0.0             a2      0.0     5.32259213165916      0.0             a3      0.0     0.0     10.053              basis   0.0    0.0    0.18799999999999997269         basis   0.5    0.49999998763204500651    0.18799999999999997269             basis   0.0    0.0    0.68799999999999994493         basis   0.5    0.49999998763204500651    $((6.916464/v_c))             basis   0.0    $((1.774197/v_b))    $((4.403214/v_c))           basis   $((1.536500/v_a))    $((0.887099/v_b))    $((9.429714/v_c))             basis   $((1.536500/v_a))    $((4.43549/v_b))     $((4.403214/v_c))             basis   0.0     $((3.5484/v_b))  $((9.429714/v_c))              basis    0.0    0.0    0.0              basis    $((1.536500/v_a))    $((2.661296/v_b))    0.0          basis    0.0    0.0    $((5.026500/v_c))                basis    $((1.536500/v_a))    $((2.661296/v_b))    $((5.026500/v_c))            basis    0.0    $((1.774197/v_b))    $((2.513250/v_c))          basis    $((1.536500/v_a))    $((0.887099/v_b))    $((7.539750/v_c))            basis    $((1.536500/v_a))    $((4.435493/v_b))    $((2.513250/v_c))            basis    0    $((3.548395/v_b))    $((7.539750/v_c))
lattice custom  1.0             a1      3.073      0.0     0.0             a2      0.0     5.32259213165916      0.0             a3      0.0     0.0     10.053              basis   0.0    0.0    0.18799999999999997269         basis   0.5    0.49999998763204500651    0.18799999999999997269             basis   0.0    0.0    0.68799999999999994493         basis   0.5    0.49999998763204500651    0.68799999999999994493             basis   0.0    $((1.774197/v_b))    $((4.403214/v_c))           basis   $((1.536500/v_a))    $((0.887099/v_b))    $((9.429714/v_c))             basis   $((1.536500/v_a))    $((4.43549/v_b))     $((4.403214/v_c))             basis   0.0     $((3.5484/v_b))  $((9.429714/v_c))              basis    0.0    0.0    0.0              basis    $((1.536500/v_a))    $((2.661296/v_b))    0.0          basis    0.0    0.0    $((5.026500/v_c))                basis    $((1.536500/v_a))    $((2.661296/v_b))    $((5.026500/v_c))            basis    0.0    $((1.774197/v_b))    $((2.513250/v_c))          basis    $((1.536500/v_a))    $((0.887099/v_b))    $((7.539750/v_c))            basis    $((1.536500/v_a))    $((4.435493/v_b))    $((2.513250/v_c))            basis    0    $((3.548395/v_b))    $((7.539750/v_c))
lattice custom  1.0             a1      3.073      0.0     0.0             a2      0.0     5.32259213165916      0.0             a3      0.0     0.0     10.053              basis   0.0    0.0    0.18799999999999997269         basis   0.5    0.49999998763204500651    0.18799999999999997269             basis   0.0    0.0    0.68799999999999994493         basis   0.5    0.49999998763204500651    0.68799999999999994493             basis   0.0    0.33333326246190253528    $((4.403214/v_c))           basis   $((1.536500/v_a))    $((0.887099/v_b))    $((9.429714/v_c))             basis   $((1.536500/v_a))    $((4.43549/v_b))     $((4.403214/v_c))             basis   0.0     $((3.5484/v_b))  $((9.429714/v_c))              basis    0.0    0.0    0.0              basis    $((1.536500/v_a))    $((2.661296/v_b))    0.0          basis    0.0    0.0    $((5.026500/v_c))                basis    $((1.536500/v_a))    $((2.661296/v_b))    $((5.026500/v_c))            basis    0.0    $((1.774197/v_b))    $((2.513250/v_c))          basis    $((1.536500/v_a))    $((0.887099/v_b))    $((7.539750/v_c))            basis    $((1.536500/v_a))    $((4.435493/v_b))    $((2.513250/v_c))            basis    0    $((3.548395/v_b))    $((7.539750/v_c))
lattice custom  1.0             a1      3.073      0.0     0.0             a2      0.0     5.32259213165916      0.0             a3      0.0     0.0     10.053              basis   0.0    0.0    0.18799999999999997269         basis   0.5    0.49999998763204500651    0.18799999999999997269             basis   0.0    0.0    0.68799999999999994493         basis   0.5    0.49999998763204500651    0.68799999999999994493             basis   0.0    0.33333326246190253528    0.43800000000000000044           basis   $((1.536500/v_a))    $((0.887099/v_b))    $((9.429714/v_c))             basis   $((1.536500/v_a))    $((4.43549/v_b))     $((4.403214/v_c))             basis   0.0     $((3.5484/v_b))  $((9.429714/v_c))              basis    0.0    0.0    0.0              basis    $((1.536500/v_a))    $((2.661296/v_b))    0.0          basis    0.0    0.0    $((5.026500/v_c))                basis    $((1.536500/v_a))    $((2.661296/v_b))    $((5.026500/v_c))            basis    0.0    $((1.774197/v_b))    $((2.513250/v_c))          basis    $((1.536500/v_a))    $((0.887099/v_b))    $((7.539750/v_c))            basis    $((1.536500/v_a))    $((4.435493/v_b))    $((2.513250/v_c))            basis    0    $((3.548395/v_b))    $((7.539750/v_c))
lattice custom  1.0             a1      3.073      0.0     0.0             a2      0.0     5.32259213165916      0.0             a3      0.0     0.0     10.053              basis   0.0    0.0    0.18799999999999997269         basis   0.5    0.49999998763204500651    0.18799999999999997269             basis   0.0    0.0    0.68799999999999994493         basis   0.5    0.49999998763204500651    0.68799999999999994493             basis   0.0    0.33333326246190253528    0.43800000000000000044           basis   0.5    $((0.887099/v_b))    $((9.429714/v_c))             basis   $((1.536500/v_a))    $((4.43549/v_b))     $((4.403214/v_c))             basis   0.0     $((3.5484/v_b))  $((9.429714/v_c))              basis    0.0    0.0    0.0              basis    $((1.536500/v_a))    $((2.661296/v_b))    0.0          basis    0.0    0.0    $((5.026500/v_c))                basis    $((1.536500/v_a))    $((2.661296/v_b))    $((5.026500/v_c))            basis    0.0    $((1.774197/v_b))    $((2.513250/v_c))          basis    $((1.536500/v_a))    $((0.887099/v_b))    $((7.539750/v_c))            basis    $((1.536500/v_a))    $((4.435493/v_b))    $((2.513250/v_c))            basis    0    $((3.548395/v_b))    $((7.539750/v_c))
lattice custom  1.0             a1      3.073      0.0     0.0             a2      0.0     5.32259213165916      0.0             a3      0.0     0.0     10.053              basis   0.0    0.0    0.18799999999999997269         basis   0.5    0.49999998763204500651    0.18799999999999997269             basis   0.0    0.0    0.68799999999999994493         basis   0.5    0.49999998763204500651    0.68799999999999994493             basis   0.0    0.33333326246190253528    0.43800000000000000044           basis   0.5    0.16666672517014247124    $((9.429714/v_c))             basis   $((1.536500/v_a))    $((4.43549/v_b))     $((4.403214/v_c))             basis   0.0     $((3.5484/v_b))  $((9.429714/v_c))              basis    0.0    0.0    0.0              basis    $((1.536500/v_a))    $((2.661296/v_b))    0.0          basis    0.0    0.0    $((5.026500/v_c))                basis    $((1.536500/v_a))    $((2.661296/v_b))    $((5.026500/v_c))            basis    0.0    $((1.774197/v_b))    $((2.513250/v_c))          basis    $((1.536500/v_a))    $((0.887099/v_b))    $((7.539750/v_c))            basis    $((1.536500/v_a))    $((4.435493/v_b))    $((2.513250/v_c))            basis    0    $((3.548395/v_b))    $((7.539750/v_c))
lattice custom  1.0             a1      3.073      0.0     0.0             a2      0.0     5.32259213165916      0.0             a3      0.0     0.0     10.053              basis   0.0    0.0    0.18799999999999997269         basis   0.5    0.49999998763204500651    0.18799999999999997269             basis   0.0    0.0    0.68799999999999994493         basis   0.5    0.49999998763204500651    0.68799999999999994493             basis   0.0    0.33333326246190253528    0.43800000000000000044           basis   0.5    0.16666672517014247124    0.93799999999999994493             basis   $((1.536500/v_a))    $((4.43549/v_b))     $((4.403214/v_c))             basis   0.0     $((3.5484/v_b))  $((9.429714/v_c))              basis    0.0    0.0    0.0              basis    $((1.536500/v_a))    $((2.661296/v_b))    0.0          basis    0.0    0.0    $((5.026500/v_c))                basis    $((1.536500/v_a))    $((2.661296/v_b))    $((5.026500/v_c))            basis    0.0    $((1.774197/v_b))    $((2.513250/v_c))          basis    $((1.536500/v_a))    $((0.887099/v_b))    $((7.539750/v_c))            basis    $((1.536500/v_a))    $((4.435493/v_b))    $((2.513250/v_c))            basis    0    $((3.548395/v_b))    $((7.539750/v_c))
lattice custom  1.0             a1      3.073      0.0     0.0             a2      0.0     5.32259213165916      0.0             a3      0.0     0.0     10.053              basis   0.0    0.0    0.18799999999999997269         basis   0.5    0.49999998763204500651    0.18799999999999997269             basis   0.0    0.0    0.68799999999999994493         basis   0.5    0.49999998763204500651    0.68799999999999994493             basis   0.0    0.33333326246190253528    0.43800000000000000044           basis   0.5    0.16666672517014247124    0.93799999999999994493             basis   0.5    $((4.43549/v_b))     $((4.403214/v_c))             basis   0.0     $((3.5484/v_b))  $((9.429714/v_c))              basis    0.0    0.0    0.0              basis    $((1.536500/v_a))    $((2.661296/v_b))    0.0          basis    0.0    0.0    $((5.026500/v_c))                basis    $((1.536500/v_a))    $((2.661296/v_b))    $((5.026500/v_c))            basis    0.0    $((1.774197/v_b))    $((2.513250/v_c))          basis    $((1.536500/v_a))    $((0.887099/v_b))    $((7.539750/v_c))            basis    $((1.536500/v_a))    $((4.435493/v_b))    $((2.513250/v_c))            basis    0    $((3.548395/v_b))    $((7.539750/v_c))
lattice custom  1.0             a1      3.073      0.0     0.0             a2      0.0     5.32259213165916      0.0             a3      0.0     0.0     10.053              basis   0.0    0.0    0.18799999999999997269         basis   0.5    0.49999998763204500651    0.18799999999999997269             basis   0.0    0.0    0.68799999999999994493         basis   0.5    0.49999998763204500651    0.68799999999999994493             basis   0.0    0.33333326246190253528    0.43800000000000000044           basis   0.5    0.16666672517014247124    0.93799999999999994493             basis   0.5    0.83333268645880009817     $((4.403214/v_c))             basis   0.0     $((3.5484/v_b))  $((9.429714/v_c))              basis    0.0    0.0    0.0              basis    $((1.536500/v_a))    $((2.661296/v_b))    0.0          basis    0.0    0.0    $((5.026500/v_c))                basis    $((1.536500/v_a))    $((2.661296/v_b))    $((5.026500/v_c))            basis    0.0    $((1.774197/v_b))    $((2.513250/v_c))          basis    $((1.536500/v_a))    $((0.887099/v_b))    $((7.539750/v_c))            basis    $((1.536500/v_a))    $((4.435493/v_b))    $((2.513250/v_c))            basis    0    $((3.548395/v_b))    $((7.539750/v_c))
lattice custom  1.0             a1      3.073      0.0     0.0             a2      0.0     5.32259213165916      0.0             a3      0.0     0.0     10.053              basis   0.0    0.0    0.18799999999999997269         basis   0.5    0.49999998763204500651    0.18799999999999997269             basis   0.0    0.0    0.68799999999999994493         basis   0.5    0.49999998763204500651    0.68799999999999994493             basis   0.0    0.33333326246190253528    0.43800000000000000044           basis   0.5    0.16666672517014247124    0.93799999999999994493             basis   0.5    0.83333268645880009817     0.43800000000000000044             basis   0.0     $((3.5484/v_b))  $((9.429714/v_c))              basis    0.0    0.0    0.0              basis    $((1.536500/v_a))    $((2.661296/v_b))    0.0          basis    0.0    0.0    $((5.026500/v_c))                basis    $((1.536500/v_a))    $((2.661296/v_b))    $((5.026500/v_c))            basis    0.0    $((1.774197/v_b))    $((2.513250/v_c))          basis    $((1.536500/v_a))    $((0.887099/v_b))    $((7.539750/v_c))            basis    $((1.536500/v_a))    $((4.435493/v_b))    $((2.513250/v_c))            basis    0    $((3.548395/v_b))    $((7.539750/v_c))
lattice custom  1.0             a1      3.073      0.0     0.0             a2      0.0     5.32259213165916      0.0             a3      0.0     0.0     10.053              basis   0.0    0.0    0.18799999999999997269         basis   0.5    0.49999998763204500651    0.18799999999999997269             basis   0.0    0.0    0.68799999999999994493         basis   0.5    0.49999998763204500651    0.68799999999999994493             basis   0.0    0.33333326246190253528    0.43800000000000000044           basis   0.5    0.16666672517014247124    0.93799999999999994493             basis   0.5    0.83333268645880009817     0.43800000000000000044             basis   0.0     0.66666765219409951371  $((9.429714/v_c))              basis    0.0    0.0    0.0              basis    $((1.536500/v_a))    $((2.661296/v_b))    0.0          basis    0.0    0.0    $((5.026500/v_c))                basis    $((1.536500/v_a))    $((2.661296/v_b))    $((5.026500/v_c))            basis    0.0    $((1.774197/v_b))    $((2.513250/v_c))          basis    $((1.536500/v_a))    $((0.887099/v_b))    $((7.539750/v_c))            basis    $((1.536500/v_a))    $((4.435493/v_b))    $((2.513250/v_c))            basis    0    $((3.548395/v_b))    $((7.539750/v_c))
lattice custom  1.0             a1      3.073      0.0     0.0             a2      0.0     5.32259213165916      0.0             a3      0.0     0.0     10.053              basis   0.0    0.0    0.18799999999999997269         basis   0.5    0.49999998763204500651    0.18799999999999997269             basis   0.0    0.0    0.68799999999999994493         basis   0.5    0.49999998763204500651    0.68799999999999994493             basis   0.0    0.33333326246190253528    0.43800000000000000044           basis   0.5    0.16666672517014247124    0.93799999999999994493             basis   0.5    0.83333268645880009817     0.43800000000000000044             basis   0.0     0.66666765219409951371  0.93799999999999994493              basis    0.0    0.0    0.0              basis    $((1.536500/v_a))    $((2.661296/v_b))    0.0          basis    0.0    0.0    $((5.026500/v_c))                basis    $((1.536500/v_a))    $((2.661296/v_b))    $((5.026500/v_c))            basis    0.0    $((1.774197/v_b))    $((2.513250/v_c))          basis    $((1.536500/v_a))    $((0.887099/v_b))    $((7.539750/v_c))            basis    $((1.536500/v_a))    $((4.435493/v_b))    $((2.513250/v_c))            basis    0    $((3.548395/v_b))    $((7.539750/v_c))
lattice custom  1.0             a1      3.073      0.0     0.0             a2      0.0     5.32259213165916      0.0             a3      0.0     0.0     10.053              basis   0.0    0.0    0.18799999999999997269         basis   0.5    0.49999998763204500651    0.18799999999999997269             basis   0.0    0.0    0.68799999999999994493         basis   0.5    0.49999998763204500651    0.68799999999999994493             basis   0.0    0.33333326246190253528    0.43800000000000000044           basis   0.5    0.16666672517014247124    0.93799999999999994493             basis   0.5    0.83333268645880009817     0.43800000000000000044             basis   0.0     0.66666765219409951371  0.93799999999999994493              basis    0.0    0.0    0.0              basis    0.5    $((2.661296/v_b))    0.0          basis    0.0    0.0    $((5.026500/v_c))                basis    $((1.536500/v_a))    $((2.661296/v_b))    $((5.026500/v_c))            basis    0.0    $((1.774197/v_b))    $((2.513250/v_c))          basis    $((1.536500/v_a))    $((0.887099/v_b))    $((7.539750/v_c))            basis    $((1.536500/v_a))    $((4.435493/v_b))    $((2.513250/v_c))            basis    0    $((3.548395/v_b))    $((7.539750/v_c))
lattice custom  1.0             a1      3.073      0.0     0.0             a2      0.0     5.32259213165916      0.0             a3      0.0     0.0     10.053              basis   0.0    0.0    0.18799999999999997269         basis   0.5    0.49999998763204500651    0.18799999999999997269             basis   0.0    0.0    0.68799999999999994493         basis   0.5    0.49999998763204500651    0.68799999999999994493             basis   0.0    0.33333326246190253528    0.43800000000000000044           basis   0.5    0.16666672517014247124    0.93799999999999994493             basis   0.5    0.83333268645880009817     0.43800000000000000044             basis   0.0     0.66666765219409951371  0.93799999999999994493              basis    0.0    0.0    0.0              basis    0.5    0.49999998763204500651    0.0          basis    0.0    0.0    $((5.026500/v_c))                basis    $((1.536500/v_a))    $((2.661296/v_b))    $((5.026500/v_c))            basis    0.0    $((1.774197/v_b))    $((2.513250/v_c))          basis    $((1.536500/v_a))    $((0.887099/v_b))    $((7.539750/v_c))            basis    $((1.536500/v_a))    $((4.435493/v_b))    $((2.513250/v_c))            basis    0    $((3.548395/v_b))    $((7.539750/v_c))
lattice custom  1.0             a1      3.073      0.0     0.0             a2      0.0     5.32259213165916      0.0             a3      0.0     0.0     10.053              basis   0.0    0.0    0.18799999999999997269         basis   0.5    0.49999998763204500651    0.18799999999999997269             basis   0.0    0.0    0.68799999999999994493         basis   0.5    0.49999998763204500651    0.68799999999999994493             basis   0.0    0.33333326246190253528    0.43800000000000000044           basis   0.5    0.16666672517014247124    0.93799999999999994493             basis   0.5    0.83333268645880009817     0.43800000000000000044             basis   0.0     0.66666765219409951371  0.93799999999999994493              basis    0.0    0.0    0.0              basis    0.5    0.49999998763204500651    0.0          basis    0.0    0.0    0.5                basis    $((1.536500/v_a))    $((2.661296/v_b))    $((5.026500/v_c))            basis    0.0    $((1.774197/v_b))    $((2.513250/v_c))          basis    $((1.536500/v_a))    $((0.887099/v_b))    $((7.539750/v_c))            basis    $((1.536500/v_a))    $((4.435493/v_b))    $((2.513250/v_c))            basis    0    $((3.548395/v_b))    $((7.539750/v_c))
lattice custom  1.0             a1      3.073      0.0     0.0             a2      0.0     5.32259213165916      0.0             a3      0.0     0.0     10.053              basis   0.0    0.0    0.18799999999999997269         basis   0.5    0.49999998763204500651    0.18799999999999997269             basis   0.0    0.0    0.68799999999999994493         basis   0.5    0.49999998763204500651    0.68799999999999994493             basis   0.0    0.33333326246190253528    0.43800000000000000044           basis   0.5    0.16666672517014247124    0.93799999999999994493             basis   0.5    0.83333268645880009817     0.43800000000000000044             basis   0.0     0.66666765219409951371  0.93799999999999994493              basis    0.0    0.0    0.0              basis    0.5    0.49999998763204500651    0.0          basis    0.0    0.0    0.5                basis    0.5    $((2.661296/v_b))    $((5.026500/v_c))            basis    0.0    $((1.774197/v_b))    $((2.513250/v_c))          basis    $((1.536500/v_a))    $((0.887099/v_b))    $((7.539750/v_c))            basis    $((1.536500/v_a))    $((4.435493/v_b))    $((2.513250/v_c))            basis    0    $((3.548395/v_b))    $((7.539750/v_c))
lattice custom  1.0             a1      3.073      0.0     0.0             a2      0.0     5.32259213165916      0.0             a3      0.0     0.0     10.053              basis   0.0    0.0    0.18799999999999997269         basis   0.5    0.49999998763204500651    0.18799999999999997269             basis   0.0    0.0    0.68799999999999994493         basis   0.5    0.49999998763204500651    0.68799999999999994493             basis   0.0    0.33333326246190253528    0.43800000000000000044           basis   0.5    0.16666672517014247124    0.93799999999999994493             basis   0.5    0.83333268645880009817     0.43800000000000000044             basis   0.0     0.66666765219409951371  0.93799999999999994493              basis    0.0    0.0    0.0              basis    0.5    0.49999998763204500651    0.0          basis    0.0    0.0    0.5                basis    0.5    0.49999998763204500651    $((5.026500/v_c))            basis    0.0    $((1.774197/v_b))    $((2.513250/v_c))          basis    $((1.536500/v_a))    $((0.887099/v_b))    $((7.539750/v_c))            basis    $((1.536500/v_a))    $((4.435493/v_b))    $((2.513250/v_c))            basis    0    $((3.548395/v_b))    $((7.539750/v_c))
lattice custom  1.0             a1      3.073      0.0     0.0             a2      0.0     5.32259213165916      0.0             a3      0.0     0.0     10.053              basis   0.0    0.0    0.18799999999999997269         basis   0.5    0.49999998763204500651    0.18799999999999997269             basis   0.0    0.0    0.68799999999999994493         basis   0.5    0.49999998763204500651    0.68799999999999994493             basis   0.0    0.33333326246190253528    0.43800000000000000044           basis   0.5    0.16666672517014247124    0.93799999999999994493             basis   0.5    0.83333268645880009817     0.43800000000000000044             basis   0.0     0.66666765219409951371  0.93799999999999994493              basis    0.0    0.0    0.0              basis    0.5    0.49999998763204500651    0.0          basis    0.0    0.0    0.5                basis    0.5    0.49999998763204500651    0.5            basis    0.0    $((1.774197/v_b))    $((2.513250/v_c))          basis    $((1.536500/v_a))    $((0.887099/v_b))    $((7.539750/v_c))            basis    $((1.536500/v_a))    $((4.435493/v_b))    $((2.513250/v_c))            basis    0    $((3.548395/v_b))    $((7.539750/v_c))
lattice custom  1.0             a1      3.073      0.0     0.0             a2      0.0     5.32259213165916      0.0             a3      0.0     0.0     10.053              basis   0.0    0.0    0.18799999999999997269         basis   0.5    0.49999998763204500651    0.18799999999999997269             basis   0.0    0.0    0.68799999999999994493         basis   0.5    0.49999998763204500651    0.68799999999999994493             basis   0.0    0.33333326246190253528    0.43800000000000000044           basis   0.5    0.16666672517014247124    0.93799999999999994493             basis   0.5    0.83333268645880009817     0.43800000000000000044             basis   0.0     0.66666765219409951371  0.93799999999999994493              basis    0.0    0.0    0.0              basis    0.5    0.49999998763204500651    0.0          basis    0.0    0.0    0.5                basis    0.5    0.49999998763204500651    0.5            basis    0.0    0.33333326246190253528    $((2.513250/v_c))          basis    $((1.536500/v_a))    $((0.887099/v_b))    $((7.539750/v_c))            basis    $((1.536500/v_a))    $((4.435493/v_b))    $((2.513250/v_c))            basis    0    $((3.548395/v_b))    $((7.539750/v_c))
lattice custom  1.0             a1      3.073      0.0     0.0             a2      0.0     5.32259213165916      0.0             a3      0.0     0.0     10.053              basis   0.0    0.0    0.18799999999999997269         basis   0.5    0.49999998763204500651    0.18799999999999997269             basis   0.0    0.0    0.68799999999999994493         basis   0.5    0.49999998763204500651    0.68799999999999994493             basis   0.0    0.33333326246190253528    0.43800000000000000044           basis   0.5    0.16666672517014247124    0.93799999999999994493             basis   0.5    0.83333268645880009817     0.43800000000000000044             basis   0.0     0.66666765219409951371  0.93799999999999994493              basis    0.0    0.0    0.0              basis    0.5    0.49999998763204500651    0.0          basis    0.0    0.0    0.5                basis    0.5    0.49999998763204500651    0.5            basis    0.0    0.33333326246190253528    0.25          basis    $((1.536500/v_a))    $((0.887099/v_b))    $((7.539750/v_c))            basis    $((1.536500/v_a))    $((4.435493/v_b))    $((2.513250/v_c))            basis    0    $((3.548395/v_b))    $((7.539750/v_c))
lattice custom  1.0             a1      3.073      0.0     0.0             a2      0.0     5.32259213165916      0.0             a3      0.0     0.0     10.053              basis   0.0    0.0    0.18799999999999997269         basis   0.5    0.49999998763204500651    0.18799999999999997269             basis   0.0    0.0    0.68799999999999994493         basis   0.5    0.49999998763204500651    0.68799999999999994493             basis   0.0    0.33333326246190253528    0.43800000000000000044           basis   0.5    0.16666672517014247124    0.93799999999999994493             basis   0.5    0.83333268645880009817     0.43800000000000000044             basis   0.0     0.66666765219409951371  0.93799999999999994493              basis    0.0    0.0    0.0              basis    0.5    0.49999998763204500651    0.0          basis    0.0    0.0    0.5                basis    0.5    0.49999998763204500651    0.5            basis    0.0    0.33333326246190253528    0.25          basis    0.5    $((0.887099/v_b))    $((7.539750/v_c))            basis    $((1.536500/v_a))    $((4.435493/v_b))    $((2.513250/v_c))            basis    0    $((3.548395/v_b))    $((7.539750/v_c))
lattice custom  1.0             a1      3.073      0.0     0.0             a2      0.0     5.32259213165916      0.0             a3      0.0     0.0     10.053              basis   0.0    0.0    0.18799999999999997269         basis   0.5    0.49999998763204500651    0.18799999999999997269             basis   0.0    0.0    0.68799999999999994493         basis   0.5    0.49999998763204500651    0.68799999999999994493             basis   0.0    0.33333326246190253528    0.43800000000000000044           basis   0.5    0.16666672517014247124    0.93799999999999994493             basis   0.5    0.83333268645880009817     0.43800000000000000044             basis   0.0     0.66666765219409951371  0.93799999999999994493              basis    0.0    0.0    0.0              basis    0.5    0.49999998763204500651    0.0          basis    0.0    0.0    0.5                basis    0.5    0.49999998763204500651    0.5            basis    0.0    0.33333326246190253528    0.25          basis    0.5    0.16666672517014247124    $((7.539750/v_c))            basis    $((1.536500/v_a))    $((4.435493/v_b))    $((2.513250/v_c))            basis    0    $((3.548395/v_b))    $((7.539750/v_c))
lattice custom  1.0             a1      3.073      0.0     0.0             a2      0.0     5.32259213165916      0.0             a3      0.0     0.0     10.053              basis   0.0    0.0    0.18799999999999997269         basis   0.5    0.49999998763204500651    0.18799999999999997269             basis   0.0    0.0    0.68799999999999994493         basis   0.5    0.49999998763204500651    0.68799999999999994493             basis   0.0    0.33333326246190253528    0.43800000000000000044           basis   0.5    0.16666672517014247124    0.93799999999999994493             basis   0.5    0.83333268645880009817     0.43800000000000000044             basis   0.0     0.66666765219409951371  0.93799999999999994493              basis    0.0    0.0    0.0              basis    0.5    0.49999998763204500651    0.0          basis    0.0    0.0    0.5                basis    0.5    0.49999998763204500651    0.5            basis    0.0    0.33333326246190253528    0.25          basis    0.5    0.16666672517014247124    0.74999999999999988898            basis    $((1.536500/v_a))    $((4.435493/v_b))    $((2.513250/v_c))            basis    0    $((3.548395/v_b))    $((7.539750/v_c))
lattice custom  1.0             a1      3.073      0.0     0.0             a2      0.0     5.32259213165916      0.0             a3      0.0     0.0     10.053              basis   0.0    0.0    0.18799999999999997269         basis   0.5    0.49999998763204500651    0.18799999999999997269             basis   0.0    0.0    0.68799999999999994493         basis   0.5    0.49999998763204500651    0.68799999999999994493             basis   0.0    0.33333326246190253528    0.43800000000000000044           basis   0.5    0.16666672517014247124    0.93799999999999994493             basis   0.5    0.83333268645880009817     0.43800000000000000044             basis   0.0     0.66666765219409951371  0.93799999999999994493              basis    0.0    0.0    0.0              basis    0.5    0.49999998763204500651    0.0          basis    0.0    0.0    0.5                basis    0.5    0.49999998763204500651    0.5            basis    0.0    0.33333326246190253528    0.25          basis    0.5    0.16666672517014247124    0.74999999999999988898            basis    0.5    $((4.435493/v_b))    $((2.513250/v_c))            basis    0    $((3.548395/v_b))    $((7.539750/v_c))
lattice custom  1.0             a1      3.073      0.0     0.0             a2      0.0     5.32259213165916      0.0             a3      0.0     0.0     10.053              basis   0.0    0.0    0.18799999999999997269         basis   0.5    0.49999998763204500651    0.18799999999999997269             basis   0.0    0.0    0.68799999999999994493         basis   0.5    0.49999998763204500651    0.68799999999999994493             basis   0.0    0.33333326246190253528    0.43800000000000000044           basis   0.5    0.16666672517014247124    0.93799999999999994493             basis   0.5    0.83333268645880009817     0.43800000000000000044             basis   0.0     0.66666765219409951371  0.93799999999999994493              basis    0.0    0.0    0.0              basis    0.5    0.49999998763204500651    0.0          basis    0.0    0.0    0.5                basis    0.5    0.49999998763204500651    0.5            basis    0.0    0.33333326246190253528    0.25          basis    0.5    0.16666672517014247124    0.74999999999999988898            basis    0.5    0.83333325009394754179    $((2.513250/v_c))            basis    0    $((3.548395/v_b))    $((7.539750/v_c))
lattice custom  1.0             a1      3.073      0.0     0.0             a2      0.0     5.32259213165916      0.0             a3      0.0     0.0     10.053              basis   0.0    0.0    0.18799999999999997269         basis   0.5    0.49999998763204500651    0.18799999999999997269             basis   0.0    0.0    0.68799999999999994493         basis   0.5    0.49999998763204500651    0.68799999999999994493             basis   0.0    0.33333326246190253528    0.43800000000000000044           basis   0.5    0.16666672517014247124    0.93799999999999994493             basis   0.5    0.83333268645880009817     0.43800000000000000044             basis   0.0     0.66666765219409951371  0.93799999999999994493              basis    0.0    0.0    0.0              basis    0.5    0.49999998763204500651    0.0          basis    0.0    0.0    0.5                basis    0.5    0.49999998763204500651    0.5            basis    0.0    0.33333326246190253528    0.25          basis    0.5    0.16666672517014247124    0.74999999999999988898            basis    0.5    0.83333325009394754179    0.25            basis    0    $((3.548395/v_b))    $((7.539750/v_c))
lattice custom  1.0             a1      3.073      0.0     0.0             a2      0.0     5.32259213165916      0.0             a3      0.0     0.0     10.053              basis   0.0    0.0    0.18799999999999997269         basis   0.5    0.49999998763204500651    0.18799999999999997269             basis   0.0    0.0    0.68799999999999994493         basis   0.5    0.49999998763204500651    0.68799999999999994493             basis   0.0    0.33333326246190253528    0.43800000000000000044           basis   0.5    0.16666672517014247124    0.93799999999999994493             basis   0.5    0.83333268645880009817     0.43800000000000000044             basis   0.0     0.66666765219409951371  0.93799999999999994493              basis    0.0    0.0    0.0              basis    0.5    0.49999998763204500651    0.0          basis    0.0    0.0    0.5                basis    0.5    0.49999998763204500651    0.5            basis    0.0    0.33333326246190253528    0.25          basis    0.5    0.16666672517014247124    0.74999999999999988898            basis    0.5    0.83333325009394754179    0.25            basis    0    0.66666671280218747775    $((7.539750/v_c))
lattice custom  1.0             a1      3.073      0.0     0.0             a2      0.0     5.32259213165916      0.0             a3      0.0     0.0     10.053              basis   0.0    0.0    0.18799999999999997269         basis   0.5    0.49999998763204500651    0.18799999999999997269             basis   0.0    0.0    0.68799999999999994493         basis   0.5    0.49999998763204500651    0.68799999999999994493             basis   0.0    0.33333326246190253528    0.43800000000000000044           basis   0.5    0.16666672517014247124    0.93799999999999994493             basis   0.5    0.83333268645880009817     0.43800000000000000044             basis   0.0     0.66666765219409951371  0.93799999999999994493              basis    0.0    0.0    0.0              basis    0.5    0.49999998763204500651    0.0          basis    0.0    0.0    0.5                basis    0.5    0.49999998763204500651    0.5            basis    0.0    0.33333326246190253528    0.25          basis    0.5    0.16666672517014247124    0.74999999999999988898            basis    0.5    0.83333325009394754179    0.25            basis    0    0.66666671280218747775    0.74999999999999988898
Lattice spacing in x,y,z = 3.073 5.32259 10.053

region box1 block -1  289  0  290  -45 0  side in units box
create_atoms    3 region box1                   basis   1       4               basis   2       4               basis   3       4               basis   4       4               basis   5       4               basis   6       4               basis   7       4               basis   8       4
Created 370826 atoms
# group Si type 3
# group C type 4

#####势函数
pair_style hybrid tersoff lj/cut/tip4p/long 2 1 1 1 0.125 12.0 lj/cut 10.0
pair_coeff	 * * tersoff SiCC.txt NULL NULL  Si C
Reading potential file SiCC.txt with DATE: 2009-05-05

pair_coeff     2 2 lj/cut/tip4p/long 0.009143 3.16435                                         #0000
pair_coeff     1 1 lj/cut/tip4p/long 0.00000 0.00000
pair_coeff     1 2 lj/cut/tip4p/long 0.00000 0.00000

pair_coeff     1 3 lj/cut 0.0000 0.0000
pair_coeff     2 3 lj/cut 0.0065 2.63    #0.0035�����쵥λ��3.262�Ǿ��뵥λ 0.0243
pair_coeff     1 4 lj/cut 0.0000 0.0000
pair_coeff     2 4 lj/cut 0.005 3.19    #0.0035�����쵥λ��3.262�Ǿ��뵥λ

bond_style     harmonic
bond_coeff     1 19.514 0.9572

angle_style    harmonic
angle_coeff    1 2.385 104.52
kspace_style   pppm/tip4p 1.0e-4
timestep       0.002

neighbor       2.0 bin
neigh_modify   delay 0 every 1 check yes

write_data SiC-H2o
PPPM initialization ...
  extracting TIP4P info from pair style
  G vector (1/distance) = 0.203408
  grid = 90 90 30
  stencil order = 5
  estimated absolute RMS force accuracy = 0.00149412
  estimated relative force accuracy = 0.000103761
  3d grid and FFT values/proc = 10115 4320
  update every 1 steps, delay 0 steps, check yes
#*********************************************************
dump  2  all atom 5000 dump0.lampstrj                                                        #0000000000
min_style      cg
minimize       1.0e-10 1.0e-10 1000 1000
PPPM initialization ...
  extracting TIP4P info from pair style
  G vector (1/distance) = 0.203408
  grid = 90 90 30
  stencil order = 5
  estimated absolute RMS force accuracy = 0.00149412
  estimated relative force accuracy = 0.000103761
  3d grid and FFT values/proc = 10115 4320
  update every 1 steps, delay 0 steps, check yes
Step Temp E_pair E_mol TotEng Press
0            0 7.7578463e+13     2650.088 7.7578463e+13 8.4453471e+13
Loop time of 57.0247 on 64 procs for 405 steps with 528623 atoms

Minimization stats:
  Stopping criterion = energy tolerance
  Energy initial, next-to-last, final =
  Force two-norm initial, final = 8.65644e+15 16.7464
  Force max component initial, final = 5.04791e+15 2.96113
  Final line search alpha, max atom move = 0.0584939 0.173208
  Iterations, force evaluations = 405 810

#**************************************************************
group H type 1
105198 atoms in group H
group O type 2
52599 atoms in group O
group water type 1 2
157797 atoms in group water
group SiC type 3 4
370826 atoms in group SiC

region lock1 block   50  100  50    100  -30   -20  side in units box
region lock2 block   150 200  150   200  -30   -20  side in units box

group lock11 region lock1
2476 atoms in group lock11
group lock22 region lock2
2474 atoms in group lock22
group lock1 intersect lock11 SiC
2476 atoms in group lock1
group lock2 intersect lock22 SiC
2474 atoms in group lock2
fix 1 water shake 0.0001 20 0 b 1 a 1
  find clusters CPU = 0.0189941 secs
fix 2 water nvt temp 293.15 293.15 1.0                                                              #000000000011111111111
velocity      SiC create 20.0 123 loop all
velocity   lock1  set 0.0 0.0 0.0 units box
fix    lock1         lock1 setforce 0.0 0.0 0.0
velocity   lock2  set 0.0 0.0 0.0 units box
fix    lock2         lock1 setforce 0.0 0.0 0.0
#************************************************�������ѧ��Ϣ����#####################
#compute 1 all temp  #��������ϵ�¶�
#compute 2 all ke/atom #���㵥�����ӵĶ��� dump�����
#compute 3 water ke   #����ˮ��ϵ����
compute 4 water temp  #����ˮ��ϵ���¶�
compute 5 SiC temp   #�������ϵ���¶�
compute 33 O chunk/atom bin/1d z 0.0 1.0  units box                                                         ####$$$$$$$$$$$$$$$$$$$$
thermo_style  custom  step temp c_4 c_5                                                             #00000000001111111111
thermo 1000  #���ÿN��������ѧ                                                                     #00000000001111111111
#****************************************************
run 20000                                                                                           #0000000000
PPPM initialization ...
  extracting TIP4P info from pair style
  G vector (1/distance) = 0.203408
  grid = 90 90 30
  stencil order = 5
  estimated absolute RMS force accuracy = 0.00149412
  estimated relative force accuracy = 0.000103761
  3d grid and FFT values/proc = 10115 4320
  update every 1 steps, delay 0 steps, check yes
Step Temp c_4 c_5
405    15.370478            0    19.730874
Averages over the last 11 of 22 rows, steps 11000 to 20405:
Temp c_4 c_5
80.0956 292.885 19.7309
Loop time of 3294.25 on 64 procs for 20000 steps with 528623 atoms

unfix 2
write_restart SiC-h20.restart
PPPM initialization ...
  extracting TIP4P info from pair style
  G vector (1/distance) = 0.203408
  grid = 90 90 30
  stencil order = 5
  estimated absolute RMS force accuracy = 0.00149412
  estimated relative force accuracy = 0.000103761
  3d grid and FFT values/proc = 10115 4320
  update every 1 steps, delay 0 steps, check yes
fix  heatblock1  SiC  temp/berendsen 1500 1500 1                                                       #00000000000000000000#
#velocity water create 330 790316 rot yes dist gaussian
#******************************************
#dump  1  all custom 5000 dump1.v id mol type element x y z vx vy vz                          #$$$$$$$$$$$$$$$$$$$$
#dump_modify 1 element H O si                                                                 #$$$$$$$$$$$$$$$$$$$$
fix 55 O ave/chunk  100 50 5000 33 density/number vx temp file Density_vx_T.dat                             ####$$$$$$$$$$$$$$$$$$$$
label loop
#variable a loop   0.00002   0     ###0.00002
variable d index 0.00002 0.000015 0.00001                                                    #$$$$$$$$$$$$$$$$$$$$
fix	 5  water  addforce  $d  0.0  0.0
fix	 5  water  addforce  0.00002  0.0  0.0
fix 4 all nve
run 100000
PPPM initialization ...
  extracting TIP4P info from pair style
  G vector (1/distance) = 0.203408
  grid = 90 90 30
  stencil order = 5
  estimated absolute RMS force accuracy = 0.00149412
  estimated relative force accuracy = 0.000103761
  3d grid and FFT values/proc = 10115 4320
  update every 1 steps, delay 0 steps, check yes
Step Temp c_4 c_5
20405    80.506545    294.74477    19.730874
Averages over the last 51 of 102 rows, steps 71000 to 120405:
Temp c_4 c_5
1568.08 1581.04 1564.41
Loop time of 27677.9 on 64 procs for 100000 steps with 528623 atoms
